Simulation_Workspace/Phase6/results/manual_bus_delay_100ms/fault_summary.csv
Fault_location,Fault_branch_sensor,Phase,Fault_enabled,Initial_window_start_s,Initial_window_end_exclusive_s,Initial_samples,Pre_event_current_RMS_A,Initial_current_waveform_RMS_A,Initial_peak_abs_current_A,Initial_phase_voltage_waveform_RMS_V,Full_window_fundamental_current_RMS_A,Fundamental_window_start_s,Fundamental_window_end_exclusive_s,Fundamental_samples,Initial_window_status,Fundamental_window_status
GIS230,faultGIS,A,1,0.15,0.17,100,0.000132833643467506,67600.4033980651,113811.503530713,774.18025371937,46099.827517943,0.171,0.21,39,full_initial_cycle_measured,full_post_fault_DFT_windows_measured
GIS230,faultGIS,B,1,0.15,0.17,100,0.000132833588077406,51874.8297721863,86244.92009042,16462.3024923405,45720.9260503058,0.171,0.21,39,full_initial_cycle_measured,full_post_fault_DFT_windows_measured
GIS230,faultGIS,C,1,0.15,0.17,100,0.000132833595615687,51890.1483509247,91598.166943899,16085.1748306813,45798.2312970331,0.171,0.21,39,full_initial_cycle_measured,full_post_fault_DFT_windows_measured
